instances/data_GOC/Phase_0_RTS96/scenario_92/powersystem.raw
 0,  100.000000
rts96_spring_wday.raw / File written by to_psse.gms
5 / 19 / 2015
101, ' 101 ',138,2,1,1,1,1.00,0.00,1.1,0.9,1.1,0.9
102, ' 102 ',138,2,1,1,1,1.00,0.00,1.1,0.9,1.1,0.9
103, ' 103 ',138,1,1,1,1,1.00,0.00,1.1,0.9,1.1,0.9
104, ' 104 ',138,1,1,1,1,1.00,0.00,1.1,0.9,1.1,0.9
105, ' 105 ',138,1,1,1,1,1.00,0.00,1.1,0.9,1.1,0.9
106, ' 106 ',138,1,1,1,1,1.00,0.00,1.1,0.9,1.1,0.9
107, ' 107 ',138,2,1,1,1,1.00,0.00,1.1,0.9,1.1,0.9
108, ' 108 ',138,1,1,1,1,1.00,0.00,1.1,0.9,1.1,0.9
109, ' 109 ',138,1,1,1,1,1.00,0.00,1.1,0.9,1.1,0.9
110, ' 110 ',138,1,1,1,1,1.00,0.00,1.1,0.9,1.1,0.9
111, ' 111 ',230,1,1,1,1,1.00,0.00,1.1,0.9,1.1,0.9
112, ' 112 ',230,1,1,1,1,1.00,0.00,1.1,0.9,1.1,0.9
113, ' 113 ',230,3,1,1,1,1.00,0.00,1.1,0.9,1.1,0.9
114, ' 114 ',230,2,1,1,1,1.00,0.00,1.1,0.9,1.1,0.9
115, ' 115 ',230,2,1,1,1,1.00,0.00,1.1,0.9,1.1,0.9
116, ' 116 ',230,2,1,1,1,1.00,0.00,1.1,0.9,1.1,0.9
117, ' 117 ',230,1,1,1,1,1.00,0.00,1.1,0.9,1.1,0.9
118, ' 118 ',230,2,1,1,1,1.00,0.00,1.1,0.9,1.1,0.9
119, ' 119 ',230,1,1,1,1,1.00,0.00,1.1,0.9,1.1,0.9
120, ' 120 ',230,1,1,1,1,1.00,0.00,1.1,0.9,1.1,0.9
121, ' 121 ',230,2,1,1,1,1.00,0.00,1.1,0.9,1.1,0.9
122, ' 122 ',230,2,1,1,1,1.00,0.00,1.1,0.9,1.1,0.9
123, ' 123 ',230,2,1,1,1,1.00,0.00,1.1,0.9,1.1,0.9
124, ' 124 ',230,1,1,1,1,1.00,0.00,1.1,0.9,1.1,0.9
201, ' 201 ',138,2,1,1,1,1.00,0.00,1.1,0.9,1.1,0.9
202, ' 202 ',138,2,1,1,1,1.00,0.00,1.1,0.9,1.1,0.9
203, ' 203 ',138,1,1,1,1,1.00,0.00,1.1,0.9,1.1,0.9
204, ' 204 ',138,1,1,1,1,1.00,0.00,1.1,0.9,1.1,0.9
205, ' 205 ',138,1,1,1,1,1.00,0.00,1.1,0.9,1.1,0.9
206, ' 206 ',138,1,1,1,1,1.00,0.00,1.1,0.9,1.1,0.9
207, ' 207 ',138,2,1,1,1,1.00,0.00,1.1,0.9,1.1,0.9
208, ' 208 ',138,1,1,1,1,1.00,0.00,1.1,0.9,1.1,0.9
209, ' 209 ',138,1,1,1,1,1.00,0.00,1.1,0.9,1.1,0.9
210, ' 210 ',138,1,1,1,1,1.00,0.00,1.1,0.9,1.1,0.9
211, ' 211 ',230,1,1,1,1,1.00,0.00,1.1,0.9,1.1,0.9
212, ' 212 ',230,1,1,1,1,1.00,0.00,1.1,0.9,1.1,0.9
213, ' 213 ',230,2,1,1,1,1.00,0.00,1.1,0.9,1.1,0.9
214, ' 214 ',230,2,1,1,1,1.00,0.00,1.1,0.9,1.1,0.9
215, ' 215 ',230,2,1,1,1,1.00,0.00,1.1,0.9,1.1,0.9
216, ' 216 ',230,2,1,1,1,1.00,0.00,1.1,0.9,1.1,0.9
217, ' 217 ',230,1,1,1,1,1.00,0.00,1.1,0.9,1.1,0.9
218, ' 218 ',230,2,1,1,1,1.00,0.00,1.1,0.9,1.1,0.9
219, ' 219 ',230,1,1,1,1,1.00,0.00,1.1,0.9,1.1,0.9
220, ' 220 ',230,1,1,1,1,1.00,0.00,1.1,0.9,1.1,0.9
221, ' 221 ',230,2,1,1,1,1.00,0.00,1.1,0.9,1.1,0.9
222, ' 222 ',230,2,1,1,1,1.00,0.00,1.1,0.9,1.1,0.9
223, ' 223 ',230,2,1,1,1,1.00,0.00,1.1,0.9,1.1,0.9
224, ' 224 ',230,1,1,1,1,1.00,0.00,1.1,0.9,1.1,0.9
301, ' 301 ',138,2,1,1,1,1.00,0.00,1.1,0.9,1.1,0.9
302, ' 302 ',138,2,1,1,1,1.00,0.00,1.1,0.9,1.1,0.9
303, ' 303 ',138,1,1,1,1,1.00,0.00,1.1,0.9,1.1,0.9
304, ' 304 ',138,1,1,1,1,1.00,0.00,1.1,0.9,1.1,0.9
305, ' 305 ',138,1,1,1,1,1.00,0.00,1.1,0.9,1.1,0.9
306, ' 306 ',138,1,1,1,1,1.00,0.00,1.1,0.9,1.1,0.9
307, ' 307 ',138,2,1,1,1,1.00,0.00,1.1,0.9,1.1,0.9
308, ' 308 ',138,1,1,1,1,1.00,0.00,1.1,0.9,1.1,0.9
309, ' 309 ',138,1,1,1,1,1.00,0.00,1.1,0.9,1.1,0.9
310, ' 310 ',138,1,1,1,1,1.00,0.00,1.1,0.9,1.1,0.9
311, ' 311 ',230,1,1,1,1,1.00,0.00,1.1,0.9,1.1,0.9
312, ' 312 ',230,1,1,1,1,1.00,0.00,1.1,0.9,1.1,0.9
313, ' 313 ',230,2,1,1,1,1.00,0.00,1.1,0.9,1.1,0.9
314, ' 314 ',230,2,1,1,1,1.00,0.00,1.1,0.9,1.1,0.9
315, ' 315 ',230,2,1,1,1,1.00,0.00,1.1,0.9,1.1,0.9
316, ' 316 ',230,2,1,1,1,1.00,0.00,1.1,0.9,1.1,0.9
317, ' 317 ',230,1,1,1,1,1.00,0.00,1.1,0.9,1.1,0.9
318, ' 318 ',230,2,1,1,1,1.00,0.00,1.1,0.9,1.1,0.9
319, ' 319 ',230,1,1,1,1,1.00,0.00,1.1,0.9,1.1,0.9
320, ' 320 ',230,1,1,1,1,1.00,0.00,1.1,0.9,1.1,0.9
321, ' 321 ',230,2,1,1,1,1.00,0.00,1.1,0.9,1.1,0.9
322, ' 322 ',230,2,1,1,1,1.00,0.00,1.1,0.9,1.1,0.9
323, ' 323 ',230,2,1,1,1,1.00,0.00,1.1,0.9,1.1,0.9
324, ' 324 ',230,1,1,1,1,1.00,0.00,1.1,0.9,1.1,0.9
325, ' 325 ',230,1,1,1,1,1.00,0.00,1.1,0.9,1.1,0.9
0 / END OF BUS DATA, BEGIN LOAD DATA
101, '1 ',1,11,11,93.88598795227502,14.01202162394654,0.0,0.0,0.0,0.0,1,1,0
102, '1 ',1,11,12,63.696700453388786,16.465473032810724,0.0,0.0,0.0,0.0,1,1,0
103, '1 ',1,11,11,113.43782900038082,23.49059778667702,0.0,0.0,0.0,0.0,1,1,0
104, '1 ',1,11,11,53.39435164552973,12.582084239491028,0.0,0.0,0.0,0.0,1,1,0
105, '1 ',1,11,11,38.58717092535077,11.08470631156275,0.0,0.0,0.0,0.0,1,1,0
106, '1 ',1,11,12,83.59186529163458,15.347629713390022,0.0,0.0,0.0,0.0,1,1,0
107, '1 ',1,11,12,103.83338936548681,15.45187284406973,0.0,0.0,0.0,0.0,1,1,0
108, '1 ',1,11,12,115.53203546450044,20.34200220383517,0.0,0.0,0.0,0.0,1,1,0
109, '1 ',1,11,13,94.35657095186063,28.374206239826606,0.0,0.0,0.0,0.0,1,1,0
110, '1 ',1,11,13,126.67398573035769,21.523619188802314,0.0,0.0,0.0,0.0,1,1,0
111, '1 ',1,11,13,0.0,0.0,0.0,0.0,0.0,0.0,1,1,0
112, '1 ',1,11,13,0.0,0.0,0.0,0.0,0.0,0.0,1,1,0
113, '1 ',1,12,14,131.0849676051701,33.314358729237966,0.0,0.0,0.0,0.0,1,1,0
114, '1 ',1,12,16,110.39165764778015,26.372609004482538,0.0,0.0,0.0,0.0,1,1,0
115, '1 ',1,12,16,168.94096350417544,48.71708579640984,0.0,0.0,0.0,0.0,1,1,0
116, '1 ',1,12,16,87.71560769765172,13.951784241797403,0.0,0.0,0.0,0.0,1,1,0
117, '1 ',1,12,17,0.0,0.0,0.0,0.0,0.0,0.0,1,1,0
118, '1 ',1,12,17,238.51646001740045,37.49455797441434,0.0,0.0,0.0,0.0,1,1,0
119, '1 ',1,12,15,94.26637091189717,19.93593031644439,0.0,0.0,0.0,0.0,1,1,0
120, '1 ',1,12,15,113.34248923832773,19.562451699498297,0.0,0.0,0.0,0.0,1,1,0
121, '1 ',1,12,17,0.0,0.0,0.0,0.0,0.0,0.0,1,1,0
122, '1 ',1,12,17,0.0,0.0,0.0,0.0,0.0,0.0,1,1,0
123, '1 ',1,12,15,0.0,0.0,0.0,0.0,0.0,0.0,1,1,0
124, '1 ',1,12,16,0.0,0.0,0.0,0.0,0.0,0.0,1,1,0
201, '1 ',1,21,21,96.81767350334543,10.989596879292836,0.0,0.0,0.0,0.0,1,1,0
202, '1 ',1,21,22,82.63599271565528,16.56115769224707,0.0,0.0,0.0,0.0,1,1,0
203, '1 ',1,21,21,91.60154250022674,24.17658677472481,0.0,0.0,0.0,0.0,1,1,0
204, '1 ',1,21,21,44.73268735425957,11.314989929510281,0.0,0.0,0.0,0.0,1,1,0
205, '1 ',1,21,21,58.10748374901871,11.427804025019611,0.0,0.0,0.0,0.0,1,1,0
206, '1 ',1,21,22,77.56754444938748,19.15092130671926,0.0,0.0,0.0,0.0,1,1,0
207, '1 ',1,21,22,65.63566810567863,13.270307055133161,0.0,0.0,0.0,0.0,1,1,0
208, '1 ',1,21,22,101.96875063008392,24.65899562344467,0.0,0.0,0.0,0.0,1,1,0
209, '1 ',1,21,23,136.16036705868902,26.906012926573123,0.0,0.0,0.0,0.0,1,1,0
210, '1 ',1,21,23,120.60975949422712,28.983582771889864,0.0,0.0,0.0,0.0,1,1,0
211, '1 ',1,21,23,0.0,0.0,0.0,0.0,0.0,0.0,1,1,0
212, '1 ',1,21,23,0.0,0.0,0.0,0.0,0.0,0.0,1,1,0
213, '1 ',1,22,24,152.3517840970899,44.542571022424006,0.0,0.0,0.0,0.0,1,1,0
214, '1 ',1,22,26,147.35582826897792,27.56441100268071,0.0,0.0,0.0,0.0,1,1,0
215, '1 ',1,22,26,170.44043909966703,37.18607754659056,0.0,0.0,0.0,0.0,1,1,0
216, '1 ',1,22,26,56.42682146543171,17.487572548384776,0.0,0.0,0.0,0.0,1,1,0
217, '1 ',1,22,27,0.0,0.0,0.0,0.0,0.0,0.0,1,1,0
218, '1 ',1,22,27,246.45444791812236,35.17264558548108,0.0,0.0,0.0,0.0,1,1,0
219, '1 ',1,22,25,133.85128908630597,32.446712328607035,0.0,0.0,0.0,0.0,1,1,0
220, '1 ',1,22,25,76.84016255952714,14.892409719571006,0.0,0.0,0.0,0.0,1,1,0
221, '1 ',1,22,27,0.0,0.0,0.0,0.0,0.0,0.0,1,1,0
222, '1 ',1,22,27,0.0,0.0,0.0,0.0,0.0,0.0,1,1,0
223, '1 ',1,22,25,0.0,0.0,0.0,0.0,0.0,0.0,1,1,0
224, '1 ',1,22,26,0.0,0.0,0.0,0.0,0.0,0.0,1,1,0
301, '1 ',1,31,31,67.96427720206417,11.808933052533957,0.0,0.0,0.0,0.0,1,1,0
302, '1 ',1,31,32,59.87073172154222,17.3352959182458,0.0,0.0,0.0,0.0,1,1,0
303, '1 ',1,31,31,143.03291080907732,27.13886533514256,0.0,0.0,0.0,0.0,1,1,0
304, '1 ',1,31,31,44.66170494152493,11.337007953112945,0.0,0.0,0.0,0.0,1,1,0
305, '1 ',1,31,31,57.3486657353961,12.605429765317496,0.0,0.0,0.0,0.0,1,1,0
306, '1 ',1,31,32,77.93134064618424,21.10115764103327,0.0,0.0,0.0,0.0,1,1,0
307, '1 ',1,31,32,100.30208200020134,20.708711767805507,0.0,0.0,0.0,0.0,1,1,0
308, '1 ',1,31,32,87.89952454523743,24.99262655288726,0.0,0.0,0.0,0.0,1,1,0
309, '1 ',1,31,33,91.78678435550769,27.48625554609932,0.0,0.0,0.0,0.0,1,1,0
310, '1 ',1,31,33,109.34513250726553,28.45833015186712,0.0,0.0,0.0,0.0,1,1,0
311, '1 ',1,31,33,0.0,0.0,0.0,0.0,0.0,0.0,1,1,0
312, '1 ',1,31,33,0.0,0.0,0.0,0.0,0.0,0.0,1,1,0
313, '1 ',1,32,34,162.54670763676964,32.7626082960709,0.0,0.0,0.0,0.0,1,1,0
314, '1 ',1,32,36,162.45687808726962,33.03566944414973,0.0,0.0,0.0,0.0,1,1,0
315, '1 ',1,32,36,210.09398812270217,51.02948632942736,0.0,0.0,0.0,0.0,1,1,0
316, '1 ',1,32,36,76.86276080012786,14.411583479918537,0.0,0.0,0.0,0.0,1,1,0
317, '1 ',1,32,37,0.0,0.0,0.0,0.0,0.0,0.0,1,1,0
318, '1 ',1,32,37,263.8134221129945,44.93187150534186,0.0,0.0,0.0,0.0,1,1,0
319, '1 ',1,32,35,130.0929884786707,21.043080782816695,0.0,0.0,0.0,0.0,1,1,0
320, '1 ',1,32,35,111.17782384323478,15.87406772450544,0.0,0.0,0.0,0.0,1,1,0
321, '1 ',1,32,37,0.0,0.0,0.0,0.0,0.0,0.0,1,1,0
322, '1 ',1,32,37,0.0,0.0,0.0,0.0,0.0,0.0,1,1,0
323, '1 ',1,32,35,0.0,0.0,0.0,0.0,0.0,0.0,1,1,0
324, '1 ',1,32,36,0.0,0.0,0.0,0.0,0.0,0.0,1,1,0
325, '1 ',1,32,35,0.0,0.0,0.0,0.0,0.0,0.0,1,1,0
0 / END OF LOAD DATA, BEGIN FIXED SHUNT DATA
0 / END OF FIXED SHUNT DATA, BEGIN GENERATOR DATA
101,1,10,0,10.39407912408933,-1.8305226070806402,1.035,0,24,0,1,0,0,1,1,100,14.522976608015597,9.094352382393556,1,1,0,1
101,2,10,0,7.5271413773298255,-0.6218472621403643,1.035,0,24,0,1,0,0,1,1,100,20.89100576750934,16.010612654536963,1,1,0,1
101,3,76,14.1,38.35922358557582,-32.39825660013594,1.035,0,89,0,1,0,0,1,1,100,87.06600335165858,24.746758104115727,1,1,0,1
101,4,76,14.1,23.139727514237162,-27.18583293887787,1.035,0,89,0,1,0,0,1,1,100,97.29953798670321,54.45862531516701,1,1,0,1
102,5,10,0,11.579031742643565,1.6053666779771447,1.035,0,24,0,1,0,0,1,1,100,19.587919083423913,14.692210976574572,1,1,0,1
102,6,10,0,11.23285492695868,3.6711294720880687,1.035,0,24,0,1,0,0,1,1,100,18.719093130901456,13.730658921357247,1,1,0,1
102,7,76,7,30.020549857523292,-16.57851102692075,1.035,0,89,0,1,0,0,1,1,100,70.45924470443279,48.66542774763335,1,1,0,1
102,8,76,7,22.351680445019152,-31.8996149788145,1.035,0,89,0,1,0,0,1,1,100,62.38076831586659,8.339983118698001,1,1,0,1
107,9,80,17.2,56.35966943856329,-12.923363610170782,1.025,0,118,0,1,0,0,1,1,100,83.467843295075,13.08456480037421,1,1,0,1
107,10,80,17.2,61.72048070188612,1.3285839054733586,1.025,0,118,0,1,0,0,1,1,100,113.33524841815232,30.776410482358173,1,1,0,1
107,11,80,17.2,58.29840534366667,-12.20910813845694,1.025,0,118,0,1,0,0,1,1,100,97.08807164337486,2.8972375334706157,1,1,0,1
113,12,95.1,40.7,91.8751670755446,13.81525506824255,1.02,0,232,0,1,0,0,1,1,100,147.67590596992522,3.3650681637506636,1,1,0,1
113,13,95.1,40.7,77.15056171268225,6.630560863763094,1.02,0,232,0,1,0,0,1,1,100,240.08889519502412,99.27788716563492,1,1,0,1
113,14,95.1,40.7,92.17817968130112,17.107253685593605,1.02,0,232,0,1,0,0,1,1,100,170.0791507930495,18.210941540373028,1,1,0,1
114,15,0,13.7,186.74262292683125,-26.720940894447267,0.98,0,100,0,1,0,0,1,1,100,0.0,0.0,1,1,0,1
115,16,12,0,6.140313271153719,1.8842843874357653,1.014,0,14,0,1,0,0,1,1,100,11.298159276880323,1.1644285488501183,1,1,0,1
115,17,12,0,6.068630838766694,-0.6303143374621873,1.014,0,14,0,1,0,0,1,1,100,12.86563076879829,2.5112202064320446,1,1,0,1
115,18,12,0,6.84985876372084,0.11807470321655167,1.014,0,14,0,1,0,0,1,1,100,12.443122692033647,2.8131247618049375,1,1,0,1
115,19,12,0,6.2999955313280225,1.9812696212902665,1.014,0,14,0,1,0,0,1,1,100,11.886788222193719,4.338625197261573,1,1,0,1
115,20,12,0,7.204492623545229,-0.157582640368493,1.014,0,14,0,1,0,0,1,1,100,12.779272516630591,4.23930853854865,1,1,0,1
115,21,155,0.05,79.16017131134868,-23.417418599128723,1.014,0,182,0,1,0,0,1,1,100,151.1769598890096,20.39116674739634,1,1,0,1
116,22,155,25.22,91.63452311605215,-16.955209576524794,1.017,0,182,0,1,0,0,1,1,100,151.1826972423587,62.37554166363553,1,1,0,1
118,23,400,137.4,163.34142366424203,-22.667593783698948,1.05,0,471,0,1,0,0,1,1,100,499.69445103779435,197.03588888049126,1,1,0,1
121,24,400,108.2,174.01442361995578,-63.32947703078389,1.05,0,471,0,1,0,0,1,1,100,358.72745502740145,339.8339610556825,1,1,0,1
122,25,50,-4.96,15.033137377351522,-4.692537847999482,1.05,0,53,0,1,0,0,1,1,100,42.842189143411815,37.2330067546439,1,1,0,1
122,26,50,-4.96,11.70804026722908,-9.34561502849683,1.05,0,53,0,1,0,0,1,1,100,64.97522217920051,20.67501896526666,1,1,0,1
122,27,50,-4.96,16.791438875347374,-10.820414148457349,1.05,0,53,0,1,0,0,1,1,100,56.51027277344838,10.874774667900056,1,1,0,1
122,28,50,-4.96,20.610330555588007,-9.848577014077456,1.05,0,53,0,1,0,0,1,1,100,47.57939902599901,3.3460638695396483,1,1,0,1
122,29,50,-4.96,17.14607655033469,-9.980604719463738,1.05,0,53,0,1,0,0,1,1,100,45.777046245057136,40.08859969723359,1,1,0,1
122,30,50,-4.96,16.89292943775654,-9.66985061895102,1.05,0,53,0,1,0,0,1,1,100,48.30235620960593,12.568569285249687,1,1,0,1
123,31,155,31.79,101.71522235497832,6.2206506836228215,1.05,0,182,0,1,0,0,1,1,100,176.0300469393842,102.27785243098624,1,1,0,1
123,32,155,31.79,65.34404529631138,-78.68751759501174,1.05,0,182,0,1,0,0,1,1,100,172.48522404418327,100.81344014940551,1,1,0,1
123,33,350,71.78,148.62103831255808,-25.627923996653408,1.05,0,412,0,1,0,0,1,1,100,431.1173647968098,274.93456663237885,1,1,0,1
201,34,10,0,9.00192687753588,1.5632791556417942,1.035,0,24,0,1,0,0,1,1,100,20.525527542456985,16.778920365618543,1,1,0,1
201,35,10,0,8.426500151399523,-4.339959170669317,1.035,0,24,0,1,0,0,1,1,100,21.65084806084633,16.242472537336873,1,1,0,1
201,36,76,14.1,24.529842597898092,-17.680680876830596,1.035,0,89,0,1,0,0,1,1,100,57.60155586991459,12.152072904296226,1,1,0,1
201,37,76,14.1,23.017589044757187,-16.314399245195084,1.035,0,89,0,1,0,0,1,1,100,73.46787956394255,10.453101085498929,1,1,0,1
202,38,10,0,9.065145777072757,-1.0053668282926083,1.035,0,24,0,1,0,0,1,1,100,18.410504749044776,13.540139378570021,1,1,0,1
202,39,10,0,8.455724112223834,1.1857653656043112,1.035,0,24,0,1,0,0,1,1,100,24.003285165876154,19.709842817401515,1,1,0,1
202,40,76,7,21.248264440800995,-28.90481954975985,1.035,0,89,0,1,0,0,1,1,100,89.57786607500167,41.38427277665587,1,1,0,1
202,41,76,7,37.16390406154097,-21.452054308028885,1.035,0,89,0,1,0,0,1,1,100,95.00302710216492,40.691658655963835,1,1,0,1
207,42,80,17.2,53.35926966648549,2.8475603023544025,1.025,0,118,0,1,0,0,1,1,100,79.38839352689683,17.548109780764207,1,1,0,1
207,43,80,17.2,64.46630106121302,-3.4903423469513655,1.025,0,118,0,1,0,0,1,1,100,83.56569930445403,3.9529541844967753,1,1,0,1
207,44,80,17.2,56.0137267364189,-1.2461190540343452,1.025,0,118,0,1,0,0,1,1,100,85.85017261095345,18.23673674603924,1,1,0,1
213,45,95.1,40.7,83.57331367209554,-3.974408872425556,1.02,0,232,0,1,0,0,1,1,100,218.01018870747646,61.9966685103648,1,1,0,1
213,46,95.1,40.7,93.0157981403172,0.9272117391228676,1.02,0,232,0,1,0,0,1,1,100,198.01726193437355,84.18921579148622,1,1,0,1
213,47,95.1,40.7,93.96601263806224,20.896626882255077,1.02,0,232,0,1,0,0,1,1,100,255.68858840619214,136.40686004953457,1,1,0,1
214,48,0,13.68,159.8566714208573,-16.6362015879713,0.98,0,100,0,1,0,0,1,1,100,0.0,0.0,1,1,0,1
215,49,12,0,7.248612550366671,2.363485291879625,1.014,0,14,0,1,0,0,1,1,100,9.582344554178416,0.03175748001784129,1,1,0,1
215,50,12,0,5.933052105735987,0.7403333611786369,1.014,0,14,0,1,0,0,1,1,100,12.729538453929125,5.010050246827304,1,1,0,1
215,51,12,0,6.59893570896238,1.3990187569521355,1.014,0,14,0,1,0,0,1,1,100,9.97026224322617,8.715389462846831,1,1,0,1
215,52,12,0,7.2861273849383,-0.05482193492352838,1.014,0,14,0,1,0,0,1,1,100,10.405274734832346,5.2034581136340545,1,1,0,1
215,53,12,0,6.968662370648236,2.009588984213771,1.014,0,14,0,1,0,0,1,1,100,11.845633959397674,3.607606944814325,1,1,0,1
215,54,155,0.048,83.15699515864253,-78.51350158359858,1.014,0,182,0,1,0,0,1,1,100,110.83876299182883,77.19253951405682,1,1,0,1
216,55,155,25.22,91.49412370100617,-11.295617800205932,1.017,0,182,0,1,0,0,1,1,100,192.0507803009823,114.75883646494476,1,1,0,1
218,56,400,137.4,182.33655605465174,-80.21285546245053,1.05,0,471,0,1,0,0,1,1,100,304.5794157870114,27.471868311986327,1,1,0,1
221,57,400,108.2,195.77901641838253,-59.05944141326475,1.05,0,471,0,1,0,0,1,1,100,488.5810030251742,262.46442448813474,1,1,0,1
222,58,50,-4.96,11.643092661350964,-18.30992983961478,1.05,0,53,0,1,0,0,1,1,100,53.71699390234426,46.726038551484635,1,1,0,1
222,59,50,-4.96,20.566524344682694,-8.937597324978558,1.05,0,53,0,1,0,0,1,1,100,59.23932956531643,56.19829025266473,1,1,0,1
222,60,50,-4.96,13.023813056200742,-18.683508112095296,1.05,0,53,0,1,0,0,1,1,100,39.397070987615734,37.621673998571,1,1,0,1
222,61,50,-4.96,20.151026607304814,-2.7331706861965337,1.05,0,53,0,1,0,0,1,1,100,57.60864181444049,23.56642060551723,1,1,0,1
222,62,50,-4.96,13.821835869550704,-8.409640656691046,1.05,0,53,0,1,0,0,1,1,100,42.10258979583159,36.26805584669465,1,1,0,1
222,63,50,-4.96,13.089680782705544,-16.28434725403786,1.05,0,53,0,1,0,0,1,1,100,45.718199172988534,14.121088692618507,1,1,0,1
223,64,155,31.79,60.572551485151045,-66.79820574773476,1.05,0,182,0,1,0,0,1,1,100,110.51257852255367,32.54667091424345,1,1,0,1
223,65,155,31.79,91.20710479468107,-0.42607378913089633,1.05,0,182,0,1,0,0,1,1,100,184.1341291454155,56.62157956166193,1,1,0,1
223,66,350,71.78,179.8303262796253,53.10645554796794,1.05,0,412,0,1,0,0,1,1,100,337.94312357902527,113.6653267685324,1,1,0,1
301,67,10,0,11.696811127942055,1.8314217240549624,1.035,0,24,0,1,0,0,1,1,100,14.897009431384502,10.256378191923723,1,1,0,1
301,68,10,0,10.812303896062076,2.4058651495724916,1.035,0,24,0,1,0,0,1,1,100,14.936719932593405,9.594714511772619,1,1,0,1
301,69,76,14.1,38.8612442901358,-21.247244250262163,1.035,0,89,0,1,0,0,1,1,100,82.51928914394229,38.34376862119883,1,1,0,1
301,70,76,14.1,36.62434426182881,-26.662380830384784,1.035,0,89,0,1,0,0,1,1,100,81.77674697693438,25.335527022294706,1,1,0,1
302,71,10,0,10.393830354791135,0.41072365175932646,1.035,0,24,0,1,0,0,1,1,100,18.205222605727613,13.431069954941051,1,1,0,1
302,72,10,0,7.590154876932501,-4.043614251539112,1.035,0,24,0,1,0,0,1,1,100,17.520173819735646,14.558428873978556,1,1,0,1
302,73,76,7,36.071315431036055,-5.951550151687108,1.035,0,89,0,1,0,0,1,1,100,75.5104608008638,27.861353510506447,1,1,0,1
302,74,76,7,24.520495598204434,-35.29538589925506,1.035,0,89,0,1,0,0,1,1,100,66.4979739041999,44.30498142259765,1,1,0,1
307,75,80,17.2,49.89988758880645,0.703940668143332,1.025,0,118,0,1,0,0,1,1,100,125.67621943075208,28.49460335099137,1,1,0,1
307,76,80,17.2,76.53177893534304,16.924296738579883,1.025,0,118,0,1,0,0,1,1,100,109.71274739131331,35.53269771276973,1,1,0,1
307,77,80,17.2,45.84253022074699,-24.529606346972294,1.025,0,118,0,1,0,0,1,1,100,85.68465314339846,81.39203906285107,1,1,0,1
313,78,95.1,40.7,74.07747227698565,12.313834358006723,1.02,0,232,0,1,0,0,1,1,100,160.6045448617544,7.281875731688899,1,1,0,1
313,79,95.1,40.7,73.79705091193318,4.829925924539566,1.02,0,232,0,1,0,0,1,1,100,168.78619804265907,47.21119596703906,1,1,0,1
313,80,95.1,40.7,73.57318022474647,-9.535110913217068,1.02,0,232,0,1,0,0,1,1,100,199.06558183636514,50.215341985840325,1,1,0,1
314,81,0,13.68,159.09481302835047,-116.96987197035924,0.98,0,100,0,1,0,0,1,1,100,0.0,0.0,1,1,0,1
315,82,12,0,7.0712092772126205,2.8186964644119152,1.014,0,14,0,1,0,0,1,1,100,15.445547012239697,7.025508831739428,1,1,0,1
315,83,12,0,6.746178462915122,1.558870303072034,1.014,0,14,0,1,0,0,1,1,100,10.971661959774792,1.7086184248700746,1,1,0,1
315,84,12,0,6.498755002766848,0.25098765240982157,1.014,0,14,0,1,0,0,1,1,100,12.739498453214765,5.712772177532315,1,1,0,1
315,85,12,0,6.359409352764487,-0.9615870871581143,1.014,0,14,0,1,0,0,1,1,100,12.525484325364232,5.755902038142085,1,1,0,1
315,86,12,0,6.878056743275374,-0.6371521700173632,1.014,0,14,0,1,0,0,1,1,100,10.846887257695197,0.7465200590144214,1,1,0,1
315,87,155,0.048,69.70279296115041,-26.70168131776154,1.014,0,182,0,1,0,0,1,1,100,139.8066201012116,61.16769751840039,1,1,0,1
316,88,155,25.22,98.21958032622933,-52.310077528469265,1.017,0,182,0,1,0,0,1,1,100,142.29193438845687,36.28837710110237,1,1,0,1
318,89,400,137.4,189.5718863978982,-78.13869959907606,1.05,0,471,0,1,0,0,1,1,100,330.83321457728744,78.15146350301802,1,1,0,1
321,90,400,108.2,208.7204293254763,-29.64699215721339,1.05,0,471,0,1,0,0,1,1,100,365.2534701116383,72.03039338812232,1,1,0,1
322,91,50,-4.96,12.984770439565182,-18.591514445468782,1.05,0,53,0,1,0,0,1,1,100,54.40936844795943,16.869847197085626,1,1,0,1
322,92,50,-4.96,16.319435677677394,-15.252509029116482,1.05,0,53,0,1,0,0,1,1,100,45.32718118978664,9.608777614776052,1,1,0,1
322,93,50,-4.96,12.29655889943242,-7.4502933582291,1.05,0,53,0,1,0,0,1,1,100,45.35697629209608,10.141967879042758,1,1,0,1
322,94,50,-4.96,12.526003907620906,-6.322977571096272,1.05,0,53,0,1,0,0,1,1,100,49.925377746112645,21.614965428778632,1,1,0,1
322,95,50,-4.96,19.50518754348159,-13.854614432062952,1.05,0,53,0,1,0,0,1,1,100,49.95638768654317,11.411628567148,1,1,0,1
322,96,50,-4.96,14.500821489095689,-19.192803004384043,1.05,0,53,0,1,0,0,1,1,100,37.80320616671815,13.390017957562293,1,1,0,1
323,97,155,31.79,81.25434986501932,-25.825542656239122,1.05,0,182,0,1,0,0,1,1,100,167.87352060549892,62.09060924347723,1,1,0,1
323,98,155,31.79,91.22536364197731,-36.624888975638896,1.05,0,182,0,1,0,0,1,1,100,130.22656178753823,21.867578521673565,1,1,0,1
323,99,350,71.78,131.05674942489713,-27.77383954729885,1.05,0,412,0,1,0,0,1,1,100,443.4691032650881,176.4086309545674,1,1,0,1
0 / END OF GENERATOR DATA, BEGIN BRANCH DATA
101,102,1,0.003,0.014,0.461,210.0,231.6,240.0,0,0,0,0,1,1,0,1,1
101,103,1,0.055,0.211,0.057,210.0,249.6,264.0,0,0,0,0,1,1,0,1,1
101,105,1,0.022,0.085,0.023,210.0,249.6,264.0,0,0,0,0,1,1,0,1,1
102,104,1,0.033,0.127,0.034,210.0,249.6,264.0,0,0,0,0,1,1,0,1,1
102,106,1,0.05,0.192,0.052,210.0,249.6,264.0,0,0,0,0,1,1,0,1,1
103,109,1,0.031,0.119,0.032,210.0,249.6,264.0,0,0,0,0,1,1,0,1,1
104,109,1,0.027,0.104,0.028,210.0,249.6,264.0,0,0,0,0,1,1,0,1,1
105,110,1,0.023,0.088,0.024,210.0,249.6,264.0,0,0,0,0,1,1,0,1,1
106,110,1,0.014,0.061,2.459,210.0,231.6,240.0,0,0,0,0,1,1,0,1,1
107,108,1,0.016,0.061,0.017,210.0,249.6,264.0,0,0,0,0,1,1,0,1,1
107,203,1,0.042,0.161,0.044,210.0,249.6,264.0,0,0,0,0,1,1,0,1,1
108,109,1,0.043,0.165,0.045,210.0,249.6,264.0,0,0,0,0,1,1,0,1,1
108,110,1,0.043,0.165,0.045,210.0,249.6,264.0,0,0,0,0,1,1,0,1,1
111,113,1,0.006,0.048,0.1,600.0,720.0,750.0,0,0,0,0,1,1,0,1,1
111,114,1,0.005,0.042,0.088,600.0,720.0,750.0,0,0,0,0,1,1,0,1,1
112,113,1,0.006,0.048,0.1,600.0,720.0,750.0,0,0,0,0,1,1,0,1,1
112,123,1,0.012,0.097,0.203,600.0,720.0,750.0,0,0,0,0,1,1,0,1,1
113,123,1,0.011,0.087,0.182,600.0,720.0,750.0,0,0,0,0,1,1,0,1,1
113,215,1,0.01,0.075,0.158,600.0,720.0,750.0,0,0,0,0,1,1,0,1,1
114,116,1,0.005,0.059,0.082,600.0,720.0,750.0,0,0,0,0,1,1,0,1,1
115,116,1,0.002,0.017,0.036,600.0,720.0,750.0,0,0,0,0,1,1,0,1,1
115,121,1,0.006,0.049,0.103,600.0,720.0,750.0,0,0,0,0,1,1,0,1,1
115,121,2,0.006,0.049,0.103,600.0,720.0,750.0,0,0,0,0,1,1,0,1,1
115,124,1,0.007,0.052,0.109,600.0,720.0,750.0,0,0,0,0,1,1,0,1,1
116,117,1,0.003,0.026,0.055,600.0,720.0,750.0,0,0,0,0,1,1,0,1,1
116,119,1,0.003,0.023,0.049,600.0,720.0,750.0,0,0,0,0,1,1,0,1,1
117,118,1,0.002,0.014,0.03,600.0,720.0,750.0,0,0,0,0,1,1,0,1,1
117,122,1,0.014,0.105,0.221,600.0,720.0,750.0,0,0,0,0,1,1,0,1,1
118,121,1,0.003,0.026,0.055,600.0,720.0,750.0,0,0,0,0,1,1,0,1,1
118,121,2,0.003,0.026,0.055,600.0,720.0,750.0,0,0,0,0,1,1,0,1,1
119,120,1,0.005,0.04,0.083,600.0,720.0,750.0,0,0,0,0,1,1,0,1,1
119,120,2,0.005,0.04,0.083,600.0,720.0,750.0,0,0,0,0,1,1,0,1,1
120,123,1,0.003,0.022,0.046,600.0,720.0,750.0,0,0,0,0,1,1,0,1,1
120,123,2,0.003,0.022,0.046,600.0,720.0,750.0,0,0,0,0,1,1,0,1,1
121,122,1,0.009,0.068,0.142,600.0,720.0,750.0,0,0,0,0,1,1,0,1,1
123,217,1,0.01,0.074,0.155,600.0,720.0,750.0,0,0,0,0,1,1,0,1,1
201,202,1,0.003,0.014,0.461,210.0,231.6,240.0,0,0,0,0,1,1,0,1,1
201,203,1,0.055,0.211,0.057,210.0,249.6,264.0,0,0,0,0,1,1,0,1,1
201,205,1,0.022,0.085,0.023,210.0,249.6,264.0,0,0,0,0,1,1,0,1,1
202,204,1,0.033,0.127,0.034,210.0,249.6,264.0,0,0,0,0,1,1,0,1,1
202,206,1,0.05,0.192,0.052,210.0,249.6,264.0,0,0,0,0,1,1,0,1,1
203,209,1,0.031,0.119,0.032,210.0,249.6,264.0,0,0,0,0,1,1,0,1,1
204,209,1,0.027,0.104,0.028,210.0,249.6,264.0,0,0,0,0,1,1,0,1,1
205,210,1,0.023,0.088,0.024,210.0,249.6,264.0,0,0,0,0,1,1,0,1,1
206,210,1,0.014,0.061,2.459,210.0,231.6,240.0,0,0,0,0,1,1,0,1,1
207,208,1,0.016,0.061,0.017,210.0,249.6,264.0,0,0,0,0,1,1,0,1,1
208,209,1,0.043,0.165,0.045,210.0,249.6,264.0,0,0,0,0,1,1,0,1,1
208,210,1,0.043,0.165,0.045,210.0,249.6,264.0,0,0,0,0,1,1,0,1,1
211,213,1,0.006,0.048,0.1,600.0,720.0,750.0,0,0,0,0,1,1,0,1,1
211,214,1,0.005,0.042,0.088,600.0,720.0,750.0,0,0,0,0,1,1,0,1,1
212,213,1,0.006,0.048,0.1,600.0,720.0,750.0,0,0,0,0,1,1,0,1,1
212,223,1,0.012,0.097,0.203,600.0,720.0,750.0,0,0,0,0,1,1,0,1,1
213,223,1,0.011,0.087,0.182,600.0,720.0,750.0,0,0,0,0,1,1,0,1,1
214,216,1,0.005,0.059,0.082,600.0,720.0,750.0,0,0,0,0,1,1,0,1,1
215,216,1,0.002,0.017,0.036,600.0,720.0,750.0,0,0,0,0,1,1,0,1,1
215,221,1,0.006,0.049,0.103,600.0,720.0,750.0,0,0,0,0,1,1,0,1,1
215,221,2,0.006,0.049,0.103,600.0,720.0,750.0,0,0,0,0,1,1,0,1,1
215,224,1,0.007,0.052,0.109,600.0,720.0,750.0,0,0,0,0,1,1,0,1,1
216,217,1,0.003,0.026,0.055,600.0,720.0,750.0,0,0,0,0,1,1,0,1,1
216,219,1,0.003,0.023,0.049,600.0,720.0,750.0,0,0,0,0,1,1,0,1,1
217,218,1,0.002,0.014,0.03,600.0,720.0,750.0,0,0,0,0,1,1,0,1,1
217,222,1,0.014,0.105,0.221,600.0,720.0,750.0,0,0,0,0,1,1,0,1,1
218,221,1,0.003,0.026,0.055,600.0,720.0,750.0,0,0,0,0,1,1,0,1,1
218,221,2,0.003,0.026,0.055,600.0,720.0,750.0,0,0,0,0,1,1,0,1,1
219,220,1,0.005,0.04,0.083,600.0,720.0,750.0,0,0,0,0,1,1,0,1,1
219,220,2,0.005,0.04,0.083,600.0,720.0,750.0,0,0,0,0,1,1,0,1,1
220,223,1,0.003,0.022,0.046,600.0,720.0,750.0,0,0,0,0,1,1,0,1,1
220,223,2,0.003,0.022,0.046,600.0,720.0,750.0,0,0,0,0,1,1,0,1,1
221,222,1,0.009,0.068,0.142,600.0,720.0,750.0,0,0,0,0,1,1,0,1,1
301,302,1,0.003,0.014,0.461,210.0,231.6,240.0,0,0,0,0,1,1,0,1,1
301,303,1,0.055,0.211,0.057,210.0,249.6,264.0,0,0,0,0,1,1,0,1,1
301,305,1,0.022,0.085,0.023,210.0,249.6,264.0,0,0,0,0,1,1,0,1,1
302,304,1,0.033,0.127,0.034,210.0,249.6,264.0,0,0,0,0,1,1,0,1,1
302,306,1,0.05,0.192,0.052,210.0,249.6,264.0,0,0,0,0,1,1,0,1,1
303,309,1,0.031,0.119,0.032,210.0,249.6,264.0,0,0,0,0,1,1,0,1,1
304,309,1,0.027,0.104,0.028,210.0,249.6,264.0,0,0,0,0,1,1,0,1,1
305,310,1,0.023,0.088,0.024,210.0,249.6,264.0,0,0,0,0,1,1,0,1,1
306,310,1,0.014,0.061,2.459,210.0,231.6,240.0,0,0,0,0,1,1,0,1,1
307,308,1,0.016,0.061,0.017,210.0,249.6,264.0,0,0,0,0,1,1,0,1,1
308,309,1,0.043,0.165,0.045,210.0,249.6,264.0,0,0,0,0,1,1,0,1,1
308,310,1,0.043,0.165,0.045,210.0,249.6,264.0,0,0,0,0,1,1,0,1,1
311,313,1,0.006,0.048,0.1,600.0,720.0,750.0,0,0,0,0,1,1,0,1,1
311,314,1,0.005,0.042,0.088,600.0,720.0,750.0,0,0,0,0,1,1,0,1,1
312,313,1,0.006,0.048,0.1,600.0,720.0,750.0,0,0,0,0,1,1,0,1,1
312,323,1,0.012,0.097,0.203,600.0,720.0,750.0,0,0,0,0,1,1,0,1,1
313,323,1,0.011,0.087,0.182,600.0,720.0,750.0,0,0,0,0,1,1,0,1,1
314,316,1,0.005,0.059,0.082,600.0,720.0,750.0,0,0,0,0,1,1,0,1,1
315,316,1,0.002,0.017,0.036,600.0,720.0,750.0,0,0,0,0,1,1,0,1,1
315,321,1,0.006,0.049,0.103,600.0,720.0,750.0,0,0,0,0,1,1,0,1,1
315,321,2,0.006,0.049,0.103,600.0,720.0,750.0,0,0,0,0,1,1,0,1,1
315,324,1,0.007,0.052,0.109,600.0,720.0,750.0,0,0,0,0,1,1,0,1,1
316,317,1,0.003,0.026,0.055,600.0,720.0,750.0,0,0,0,0,1,1,0,1,1
316,319,1,0.003,0.023,0.049,600.0,720.0,750.0,0,0,0,0,1,1,0,1,1
317,318,1,0.002,0.014,0.03,600.0,720.0,750.0,0,0,0,0,1,1,0,1,1
317,322,1,0.014,0.105,0.221,600.0,720.0,750.0,0,0,0,0,1,1,0,1,1
318,223,1,0.013,0.104,0.218,600.0,720.0,750.0,0,0,0,0,1,1,0,1,1
318,321,1,0.003,0.026,0.055,600.0,720.0,750.0,0,0,0,0,1,1,0,1,1
318,321,2,0.003,0.026,0.055,600.0,720.0,750.0,0,0,0,0,1,1,0,1,1
319,320,1,0.005,0.04,0.083,600.0,720.0,750.0,0,0,0,0,1,1,0,1,1
319,320,2,0.005,0.04,0.083,600.0,720.0,750.0,0,0,0,0,1,1,0,1,1
320,323,1,0.003,0.022,0.046,600.0,720.0,750.0,0,0,0,0,1,1,0,1,1
320,323,2,0.003,0.022,0.046,600.0,720.0,750.0,0,0,0,0,1,1,0,1,1
321,322,1,0.009,0.068,0.142,600.0,720.0,750.0,0,0,0,0,1,1,0,1,1
323,325,1,0,0.009,0,866.4,1071.6,1071.6,0,0,0,0,1,1,0,1,1
325,121,1,0.012,0.097,0.203,600.0,720.0,750.0,0,0,0,0,1,1,0,1,1
0 / END OF BRANCH DATA, BEGIN TRANSFORMER DATA
  103 ,  124 , 0,  1 , 1, 1, 1, 0, 0, 2, '            ',  1 , 1, 1
   0.002000 ,  0.084000 ,  100.000000
   1.015000 , 0,  0.000000 ,  400.000000 ,  510.000000 ,  600.000000 , 0, 0,  1.10 ,  0.90 ,  1.10 ,  0.90 , 33, 0, 0, 0
   1.000000, 0
  109 ,  111 , 0,  1 , 1, 1, 1, 0, 0, 2, '            ',  1 , 1, 1
   0.002000 ,  0.084000 ,  100.000000
   1.030000 , 0,  0.000000 ,  400.000000 ,  510.000000 ,  600.000000 , 0, 0,  1.10 ,  0.90 ,  1.10 ,  0.90 , 33, 0, 0, 0
   1.000000, 0
  109 ,  112 , 0,  1 , 1, 1, 1, 0, 0, 2, '            ',  1 , 1, 1
   0.002000 ,  0.084000 ,  100.000000
   1.030000 , 0,  0.000000 ,  400.000000 ,  510.000000 ,  600.000000 , 0, 0,  1.10 ,  0.90 ,  1.10 ,  0.90 , 33, 0, 0, 0
   1.000000, 0
  110 ,  111 , 0,  1 , 1, 1, 1, 0, 0, 2, '            ',  1 , 1, 1
   0.002000 ,  0.084000 ,  100.000000
   1.015000 , 0,  0.000000 ,  400.000000 ,  510.000000 ,  600.000000 , 0, 0,  1.10 ,  0.90 ,  1.10 ,  0.90 , 33, 0, 0, 0
   1.000000, 0
  110 ,  112 , 0,  1 , 1, 1, 1, 0, 0, 2, '            ',  1 , 1, 1
   0.002000 ,  0.084000 ,  100.000000
   1.015000 , 0,  0.000000 ,  400.000000 ,  510.000000 ,  600.000000 , 0, 0,  1.10 ,  0.90 ,  1.10 ,  0.90 , 33, 0, 0, 0
   1.000000, 0
  203 ,  224 , 0,  1 , 1, 1, 1, 0, 0, 2, '            ',  1 , 1, 1
   0.002000 ,  0.084000 ,  100.000000
   1.015000 , 0,  0.000000 ,  400.000000 ,  510.000000 ,  600.000000 , 0, 0,  1.10 ,  0.90 ,  1.10 ,  0.90 , 33, 0, 0, 0
   1.000000, 0
  209 ,  211 , 0,  1 , 1, 1, 1, 0, 0, 2, '            ',  1 , 1, 1
   0.002000 ,  0.084000 ,  100.000000
   1.030000 , 0,  0.000000 ,  400.000000 ,  510.000000 ,  600.000000 , 0, 0,  1.10 ,  0.90 ,  1.10 ,  0.90 , 33, 0, 0, 0
   1.000000, 0
  209 ,  212 , 0,  1 , 1, 1, 1, 0, 0, 2, '            ',  1 , 1, 1
   0.002000 ,  0.084000 ,  100.000000
   1.030000 , 0,  0.000000 ,  400.000000 ,  510.000000 ,  600.000000 , 0, 0,  1.10 ,  0.90 ,  1.10 ,  0.90 , 33, 0, 0, 0
   1.000000, 0
  210 ,  211 , 0,  1 , 1, 1, 1, 0, 0, 2, '            ',  1 , 1, 1
   0.002000 ,  0.084000 ,  100.000000
   1.015000 , 0,  0.000000 ,  400.000000 ,  510.000000 ,  600.000000 , 0, 0,  1.10 ,  0.90 ,  1.10 ,  0.90 , 33, 0, 0, 0
   1.000000, 0
  210 ,  212 , 0,  1 , 1, 1, 1, 0, 0, 2, '            ',  1 , 1, 1
   0.002000 ,  0.084000 ,  100.000000
   1.015000 , 0,  0.000000 ,  400.000000 ,  510.000000 ,  600.000000 , 0, 0,  1.10 ,  0.90 ,  1.10 ,  0.90 , 33, 0, 0, 0
   1.000000, 0
  303 ,  324 , 0,  1 , 1, 1, 1, 0, 0, 2, '            ',  1 , 1, 1
   0.002000 ,  0.084000 ,  100.000000
   1.015000 , 0,  0.000000 ,  400.000000 ,  510.000000 ,  600.000000 , 0, 0,  1.10 ,  0.90 ,  1.10 ,  0.90 , 33, 0, 0, 0
   1.000000, 0
  309 ,  311 , 0,  1 , 1, 1, 1, 0, 0, 2, '            ',  1 , 1, 1
   0.002000 ,  0.084000 ,  100.000000
   1.030000 , 0,  0.000000 ,  400.000000 ,  510.000000 ,  600.000000 , 0, 0,  1.10 ,  0.90 ,  1.10 ,  0.90 , 33, 0, 0, 0
   1.000000, 0
  309 ,  312 , 0,  1 , 1, 1, 1, 0, 0, 2, '            ',  1 , 1, 1
   0.002000 ,  0.084000 ,  100.000000
   1.030000 , 0,  0.000000 ,  400.000000 ,  510.000000 ,  600.000000 , 0, 0,  1.10 ,  0.90 ,  1.10 ,  0.90 , 33, 0, 0, 0
   1.000000, 0
  310 ,  311 , 0,  1 , 1, 1, 1, 0, 0, 2, '            ',  1 , 1, 1
   0.002000 ,  0.084000 ,  100.000000
   1.015000 , 0,  0.000000 ,  400.000000 ,  510.000000 ,  600.000000 , 0, 0,  1.10 ,  0.90 ,  1.10 ,  0.90 , 33, 0, 0, 0
   1.000000, 0
  310 ,  312 , 0,  1 , 1, 1, 1, 0, 0, 2, '            ',  1 , 1, 1
   0.002000 ,  0.084000 ,  100.000000
   1.015000 , 0,  0.000000 ,  400.000000 ,  510.000000 ,  600.000000 , 0, 0,  1.10 ,  0.90 ,  1.10 ,  0.90 , 33, 0, 0, 0
   1.000000, 0
0 / END OF TRANSFORMER DATA, BEGIN AREA DATA
0 / END OF AREA DATA, BEGIN TWO-TERMINAL DC DATA
0 / END OF TWO-TERMINAL DC DATA, BEGIN VSC DC LINE DATA
0 / END OF VSC DC LINE DATA, BEGIN SWITCHED SHUNT DATA
0 / END OF SWITCHED SHUNT DATA, BEGIN IMPEDANCE CORRECTION DATA
0 / END OF IMPEDANCE CORRECTION DATA, BEGIN MULTI-TERMINAL DC DATA
0 / END OF MULTI-TERMINAL DC DATA, BEGIN MULTI-SECTION LINE DATA
0 / END OF MULTI-SECTION LINE DATA, BEGIN ZONE DATA
0 / END OF ZONE DATA, BEGIN INTER-AREA TRANSFER DATA
0 / END OF INTER-AREA TRANSFER DATA, BEGIN OWNER DATA
0 / END OF OWNER DATA, BEGIN FACTS CONTROL DEVICE DATA
0 / END OF FACTS CONTROL DEVICE DATA
0 / END OF SWITCHED SHUNT DATA, BEGIN GNE DATA
0 / END OF GNE DATA, BEGIN INDUCTION MACHINE DATA
0 / END OF INDUCTION MACHINE DATA
Q 
